*Heading
** Job name: C120_Dyn Model name: C120_Torsion-Dyn_exp
** Generated by: Abaqus/CAE 2019
*Preprint, echo=NO, model=NO, history=NO, contact=NO
**
** PARTS
**
*Part, name=Part-1
*Node
      1,         -30.,         -20.,         290.
      2,          30.,         -20.,         290.
      3,          30.,         -20.,         300.
      4,         -30.,         -20.,         300.
      5,          30.,           0.,         290.
      6,          30.,           0.,         300.
      7,         -30.,           0.,         300.
      8,         -30.,           0.,         290.
      9,         -30.,         -20.,         280.
     10,          30.,         -20.,         280.
     11,          30.,           0.,         280.
     12,         -30.,           0.,         280.
     13,         -30.,         -20.,   196.666672
     14,          30.,         -20.,   196.666672
     15,          30.,           0.,   196.666672
     16,         -30.,           0.,   196.666672
     17,         -30.,         -20.,   186.666672
     18,          30.,         -20.,   186.666672
     19,          30.,           0.,   186.666672
     20,         -30.,           0.,   186.666672
** ... 1121 like lines cut
*Element, type=C3D8
 1,  90, 395, 400,  89,   1,  69,  78,   4
 2, 395, 396, 401, 400,  69,  70,  77,  78
 3, 396, 397, 402, 401,  70,  71,  76,  77
 4, 397, 398, 403, 402,  71,  72,  75,  76
 5, 398, 399, 404, 403,  72,  73,  74,  75
 6, 399,  92,  91, 404,  73,   2,   3,  74
 7,   8,  83,  84,   7,  90, 395, 400,  89
 8,  83,  82,  85,  84, 395, 396, 401, 400
 9,  82,  81,  86,  85, 396, 397, 402, 401
10,  81,  80,  87,  86, 397, 398, 403, 402
11,  80,  79,  88,  87, 398, 399, 404, 403
12,  79,   5,   6,  88, 399,  92,  91, 404
13, 103, 405, 395,  90,   9,  93,  69,   1
14, 405, 406, 396, 395,  93,  94,  70,  69
15, 406, 407, 397, 396,  94,  95,  71,  70
16, 407, 408, 398, 397,  95,  96,  72,  71
17, 408, 409, 399, 398,  96,  97,  73,  72
18, 409, 104,  92, 399,  97,  10,   2,  73
19,  12, 102,  83,   8, 103, 405, 395,  90
20, 102, 101,  82,  83, 405, 406, 396, 395
** ... 748 like lines cut
*Nset, nset=Set-2, generate
    1,  1141,     1
*Elset, elset=Set-2, generate
   1,  768,    1
** Section: Section-1
*Solid Section, elset=Set-2, controls=EC-1, material=Material-1
,
*End Part
**  
**
** ASSEMBLY
**
*Assembly, name=Assembly
**  
*Instance, name=Part-1-1, part=Part-1
*End Instance
**  
*Node
      1,           0.,           0.,           0.
*Nset, nset=Set-1, instance=Part-1-1
  1,  2,  9, 10, 69, 70, 71, 72, 73, 93, 94, 95, 96, 97
*Elset, elset=Set-1, instance=Part-1-1, generate
 13,  18,   1
*Nset, nset=Set-2, instance=Part-1-1
  23,  24,  29,  30, 169, 170, 171, 172, 173, 209, 210, 211, 212, 213
*Elset, elset=Set-2, instance=Part-1-1, generate
 241,  246,    1
*Nset, nset=Set-3, instance=Part-1-1
  47,  48,  51,  52, 282, 283, 284, 285, 286, 318, 319, 320, 321, 322
*Elset, elset=Set-3, instance=Part-1-1, generate
 602,  612,    2
*Nset, nset=Set-4, instance=Part-1-1
  43,  44,  45,  46,  47,  48,  51,  52, 254, 255, 256, 257, 258, 275, 276, 277
 278, 279, 282, 283, 284, 285, 286, 318, 319, 320, 321, 322
*Elset, elset=Set-4, instance=Part-1-1
 373, 374, 375, 376, 377, 378, 602, 604, 606, 608, 610, 612
*Nset, nset=Set-8, instance=Part-1-1
   3,   4,   6,   7,  39,  40,  74,  75,  76,  77,  78,  84,  85,  86,  87,  88
  89,  91, 238, 239, 240, 241, 242, 243, 245, 400, 401, 402, 403, 404, 613, 614
 615, 616, 617
*Elset, elset=Set-8, instance=Part-1-1
   1,   2,   3,   4,   5,   6,   7,   8,   9,  10,  11,  12, 253, 254, 255, 256
 257, 258, 259, 260, 261, 262, 263, 264
*Nset, nset=Set-11
 1,
*Nset, nset=t_Set-9, instance=Part-1-1
  31,  32,  34,  35,  57,  58, 214, 215, 216, 217, 218, 224, 225, 226, 227, 228
 229, 231, 351, 352, 353, 354, 355, 356, 358, 603, 604, 605, 606, 607, 823, 824
 825, 826, 827
*Elset, elset=t_Set-9, instance=Part-1-1
 229, 230, 231, 232, 233, 234, 235, 236, 237, 238, 239, 240, 565, 566, 567, 568
 569, 570, 571, 572, 573, 574, 575, 576
*Nset, nset=_PickedSet20, internal
 1,
*Elset, elset=_s_Surf-1_S2, internal, instance=Part-1-1, generate
 373,  378,    1
*Surface, type=ELEMENT, name=s_Surf-1
_s_Surf-1_S2, S2
*Elset, elset=_s_Surf-2_S5, internal, instance=Part-1-1, generate
 602,  612,    2
*Surface, type=ELEMENT, name=s_Surf-2
_s_Surf-2_S5, S5
** Constraint: Constraint-3
*Rigid Body, ref node=_PickedSet20, tie nset=t_Set-9
*End Assembly
** 
** ELEMENT CONTROLS
** 
*Section Controls, name=EC-1, ELEMENT DELETION=YES
1., 1., 1.
*Amplitude, name=Amp-1
           0.01,            0.01,            0.02,            0.02,            0.03,            0.03,            0.04,            0.04
           0.05,            0.05,            0.06,            0.06,            0.07,            0.07,            0.08,            0.08
           0.09,            0.09,             0.1,             0.1,            0.11,            0.11,            0.12,            0.12
           0.13,            0.13,            0.14,            0.14,            0.15,            0.15,            0.16,            0.16
           0.17,            0.17,            0.18,            0.18,            0.19,            0.19,             0.2,             0.2
           0.21,            0.21,            0.22,            0.22,            0.23,            0.23,            0.24,            0.24
           0.25,            0.25,            0.26,            0.26,            0.27,            0.27,            0.28,            0.28
           0.29,            0.29,             0.3,             0.3,            0.31,            0.31,            0.32,            0.32
           0.33,            0.33,            0.34,            0.34,            0.35,            0.35,            0.36,            0.36
           0.37,            0.37,            0.38,            0.38,            0.39,            0.39,             0.4,             0.4
           0.41,            0.41,            0.42,            0.42,            0.43,            0.43,            0.44,            0.44
           0.45,            0.45,            0.46,            0.46,            0.47,            0.47,            0.48,            0.48
           0.49,            0.49,             0.5,             0.5,            0.51,            0.51,            0.52,            0.52
           0.53,            0.53,            0.54,            0.54,            0.55,            0.55,            0.56,            0.56
           0.57,            0.57,            0.58,            0.58,            0.59,            0.59,             0.6,             0.6
           0.61,            0.61,            0.62,            0.62,            0.63,            0.63,            0.64,            0.64
           0.65,            0.65,            0.66,            0.66,            0.67,            0.67,            0.68,            0.68
           0.69,            0.69,             0.7,             0.7,            0.71,            0.71,            0.72,            0.72
           0.73,            0.73,            0.74,            0.74,            0.75,            0.75,            0.76,            0.76
           0.77,            0.77,            0.78,            0.78,            0.79,            0.79,             0.8,             0.8
** ... 5 like lines cut
** 
** MATERIALS
** 
*Material, name=Material-1
*Density
 2.5e-09,
*Elastic
 41907.3, 0.2
*Concrete Damaged Plasticity
35.,   0.1,  1.16,  0.67, 1e-05
*Concrete Compression Hardening
 102.102,          0.
 110.617,  0.00011043
 117.466,    0.000197
 117.822, 0.000205391
    120., 0.000336538
 96.8558,  0.00118881
 75.3216,  0.00195266
 58.8072,  0.00259673
 46.7899,  0.00313349
 38.0287,  0.00359255
 31.5268,   0.0039977
 26.5963,  0.00436535
  23.007,  0.00468413
 20.1298,   0.0049859
  15.358,  0.00563353
*Concrete Tension Stiffening
 2.842,0.
*Concrete Compression Damage
       0.,          0.
       0.,  0.00011043
       0.,    0.000197
       0., 0.000205391
       0., 0.000336538
 0.192868,  0.00118881
  0.37232,  0.00195266
  0.50994,  0.00259673
 0.610084,  0.00313349
 0.683094,  0.00359255
 0.737277,   0.0039977
 0.778364,  0.00436535
 0.808275,  0.00468413
 0.832251,   0.0049859
*Concrete Failure, TYPE=Strain
0,0.00563,0,0.87201
** 
** BOUNDARY CONDITIONS
** 
** Name: BC-4 Type: Displacement/Rotation
*Boundary
Set-8, 1, 1
Set-8, 2, 2
Set-8, 3, 3
Set-8, 4, 4
Set-8, 5, 5
Set-8, 6, 6
** ----------------------------------------------------------------
** 
** STEP: Step-1
** 
*Step, name=Step-1, nlgeom=YES
*Dynamic, Explicit
, 1.
*Bulk Viscosity
0.06, 1.2
** 
** BOUNDARY CONDITIONS
** 
** Name: BC-3 Type: Displacement/Rotation
*Boundary, amplitude=Amp-1
Set-11, 6, 6, 0.1
** 
** OUTPUT REQUESTS
** 
*Restart, write, number interval=1, time marks=NO
** 
** FIELD OUTPUT: F-Output-1
** 
*Output, field, time interval=0.01
*Node Output
RF, U, V
*Element Output, directions=YES
DAMAGEC, LE, PE, PEEQ, S, STATUS
*Contact Output
CSTRESS, 
** 
** HISTORY OUTPUT: H-Output-1
** 
*Output, history, variable=PRESELECT
*End Step
