*Heading
** Job name: Plain_Cylinder-CFRP_wrap-0-8-layer-Contact-no-CFRP-comp Model name: C120_Cylinder_Plain_concrete-CFRP-NO_wrap
** Generated by: Abaqus/CAE 2019
*Preprint, echo=NO, model=NO, history=NO, contact=NO
**
** PARTS
**
*Part, name=Part-2
*Node
      1,           0.,        -200.,         400.
      2,           0.,        -201.,         400.
      3,         201.,           0.,         400.
      4,         200.,           0.,         400.
      5,           0.,        -201.,           0.
      6,         201.,           0.,           0.
      7,         200.,           0.,           0.
      8,           0.,        -200.,           0.
      9,        -200.,           0.,         400.
     10,        -201.,           0.,         400.
     11,        -201.,           0.,           0.
     12,        -200.,           0.,           0.
     13,           0.,         200.,         400.
     14,           0.,         201.,         400.
     15,           0.,         200.,           0.
     16,           0.,         201.,           0.
     17,           0.,        -200.,         800.
     18,           0.,        -201.,         800.
     19,         201.,           0.,         800.
     20,         200.,           0.,         800.
** ... 1324 like lines cut
*Element, type=SC8R
 1,  70, 337,  38,   1,  80, 400,  25,   2
 2, 337, 338,  37,  38, 400, 401,  26,  25
 3, 338, 339,  36,  37, 401, 402,  27,  26
 4, 339, 340,  35,  36, 402, 403,  28,  27
 5, 340, 341,  34,  35, 403, 404,  29,  28
 6, 341, 342,  33,  34, 404, 405,  30,  29
 7, 342, 343,  32,  33, 405, 406,  31,  30
 8, 343,  53,   4,  32, 406,  79,   3,  31
 9,  69, 344, 337,  70,  81, 407, 400,  80
10, 344, 345, 338, 337, 407, 408, 401, 400
11, 345, 346, 339, 338, 408, 409, 402, 401
12, 346, 347, 340, 339, 409, 410, 403, 402
13, 347, 348, 341, 340, 410, 411, 404, 403
14, 348, 349, 342, 341, 411, 412, 405, 404
15, 349, 350, 343, 342, 412, 413, 406, 405
16, 350,  54,  53, 343, 413,  78,  79, 406
17,  68, 351, 344,  69,  82, 414, 407,  81
18, 351, 352, 345, 344, 414, 415, 408, 407
19, 352, 353, 346, 345, 415, 416, 409, 408
20, 353, 354, 347, 346, 416, 417, 410, 409
** ... 620 like lines cut
*Nset, nset=Set-8
   2,  18, 222, 223, 224, 225, 226, 227, 228, 229, 230
*Elset, elset=Set-8
 241, 249, 257, 265, 273, 281, 289, 297, 305, 313, 328, 336, 344, 352, 360, 368
 376, 384, 392, 400
*Elset, elset=_Surf-2_S2, internal, generate
   1,  640,    1
*Surface, type=ELEMENT, name=Surf-2
_Surf-2_S2, S2
*Distribution, name=Ori-1-DiscOrient, location=ELEMENT, Table=Ori-1-DiscOrient_Table
** Description: Distribution generated from Discrete Orientation
,           1.,           0.,           0.,           0.,           1.,           0.
1, -0.995184719562531, -0.0980171412229538,           0.,           0.,           0.,          -1.
2, -0.956940352916718, -0.290284663438797,           0.,           0.,           0.,          -1.
3, -0.881921291351318, -0.471396714448929,           0.,           0.,           0.,          -1.
4, -0.773010432720184, -0.634393334388733,           0.,           0.,           0.,          -1.
5, -0.634393334388733, -0.773010432720184,           0.,           0.,           0.,          -1.
6, -0.471396714448929, -0.881921291351318,           0.,           0.,           0.,          -1.
7, -0.290284663438797, -0.956940352916718,           0.,           0.,           0.,          -1.
8, -0.0980171412229538, -0.995184719562531,           0.,           0.,           0.,          -1.
9, -0.995184719562531, -0.0980171412229538,           0.,           0.,           0.,          -1.
10, -0.956940352916718, -0.290284663438797,           0.,           0.,           0.,          -1.
11, -0.881921291351318, -0.471396714448929,           0.,           0.,           0.,          -1.
12, -0.773010432720184, -0.634393334388733,           0.,           0.,           0.,          -1.
13, -0.634393334388733, -0.773010432720184,           0.,           0.,           0.,          -1.
14, -0.471396714448929, -0.881921291351318,           0.,           0.,           0.,          -1.
15, -0.290284663438797, -0.956940352916718,           0.,           0.,           0.,          -1.
16, -0.0980171412229538, -0.995184719562531,           0.,           0.,           0.,          -1.
17, -0.995184719562531, -0.0980171412229538,           0.,           0.,           0.,          -1.
18, -0.956940352916718, -0.290284663438797,           0.,           0.,           0.,          -1.
19, -0.881921291351318, -0.471396714448929,           0.,           0.,           0.,          -1.
20, -0.773010432720184, -0.634393334388733,           0.,           0.,           0.,          -1.
** ... 620 like lines cut
*Orientation, name=Ori-1, system=RECTANGULAR
Ori-1-DiscOrient
3, 90.
** Region: (CompositeLayup-1-1: Generated From Layup), (Controls:EC-1)
*Elset, elset=CompositeLayup-1-1, generate
   1,  640,    1
** Section: CompositeLayup-1-1
*Shell Section, elset=CompositeLayup-1-1, composite, orientation=Ori-1, controls=EC-1, stack direction=3, layup=CompositeLayup-1
1., 3, Material-2, 0., Ply-1
1., 3, Material-2, 0., Ply-2
1., 3, Material-2, 0., Ply-3
1., 3, Material-2, 0., Ply-4
1., 3, Material-2, 0., Ply-5
1., 3, Material-2, 0., Ply-6
1., 3, Material-2, 0., Ply-7
1., 3, Material-2, 0., Ply-8
*End Part
**  
*Part, name=Part-3
*Node
      1,           0.,        -200.,         400.
      2,           0.,           0.,         400.
      3,        -200.,           0.,         400.
      4,           0.,           0.,         800.
      5,           0.,        -200.,         800.
      6,        -200.,           0.,         800.
      7,           0.,         200.,         400.
      8,           0.,           0.,           0.
      9,           0.,         200.,           0.
     10,        -200.,           0.,           0.
     11,           0.,         200.,         800.
     12,         200.,           0.,         800.
     13,         200.,           0.,         400.
     14,         200.,           0.,           0.
     15,           0.,        -200.,           0.
     16,           0.,        -160.,         400.
     17,           0.,        -120.,         400.
     18,           0.,         -80.,         400.
     19,           0.,         -40.,         400.
     20,  -196.157059,  -39.0180626,         400.
** ... 2353 like lines cut
*Element, type=C3D8
  1,  317, 1237,  238,   16,   27,  254,   26,    1
  2, 1237, 1238,  239,  238,  254,  255,   25,   26
  3, 1238, 1239,  240,  239,  255,  256,   24,   25
  4, 1239, 1229,  241,  240,  256,  257,   23,   24
  5,  318, 1240, 1237,  317,   28,  258,  254,   27
  6, 1240, 1241, 1238, 1237,  258,  259,  255,  254
  7, 1241, 1242, 1239, 1238,  259,  260,  256,  255
  8, 1242, 1228, 1229, 1239,  260,  261,  257,  256
  9,  319, 1243, 1240,  318,   29,  262,  258,   28
 10, 1243, 1244, 1241, 1240,  262,  263,  259,  258
 11, 1244, 1245, 1242, 1241,  263,  264,  260,  259
 12, 1245, 1227, 1228, 1242,  264,  265,  261,  260
 13,  320, 1246, 1243,  319,   30,  266,  262,   29
 14, 1246, 1247, 1244, 1243,  266,  267,  263,  262
 15, 1247, 1248, 1245, 1244,  267,  268,  264,  263
 16, 1248, 1226, 1227, 1245,  268,  269,  265,  264
 17,  321, 1225, 1246,  320,   31,  270,  266,   30
 18, 1225, 1224, 1247, 1246,  270,  271,  267,  266
 19, 1224, 1223, 1248, 1247,  271,  272,  268,  267
 20, 1223, 1222, 1226, 1248,  272,  273,  269,  268
** ... 1900 like lines cut
*Nset, nset=Set-1, generate
    1,  2373,     1
*Elset, elset=Set-1, generate
    1,  1920,     1
** Section: Section-1
*Solid Section, elset=Set-1, controls=EC-1, material=Material-1
,
*End Part
**  
**
** ASSEMBLY
**
*Assembly, name=Assembly
**  
*Instance, name=Part-2-2, part=Part-2
*End Instance
**  
*Instance, name=Part-3-2, part=Part-3
*End Instance
**  
*Node
      1,           0.,           0.,           0.
*Nset, nset=Set-24, instance=Part-3-2
    4,    5,    6,   11,   12,   58,   59,   60,   61,   62,   63,   64,   65,   66,   67,   68
   69,   70,   71,   72,  126,  127,  128,  129,  130,  131,  132,  133,  134,  135,  136,  146
  147,  148,  149,  150,  151,  152,  153,  154,  155,  156,  204,  205,  206,  207,  208,  209
  210,  389,  390,  391,  392,  393,  394,  395,  396,  397,  398,  399,  400,  401,  402,  403
  404,  572,  573,  574,  575,  576,  577,  578,  579,  580,  581,  582,  583,  584,  585,  586
  587,  687,  688,  689,  690,  691,  692,  693,  694,  695,  696,  697,  698,  699,  700,  701
  702, 1012, 1013, 1014, 1015, 1016, 1017, 1018, 1019, 1020, 1021, 1022, 1023, 1024, 1025, 1026
 1027,
*Elset, elset=Set-24, instance=Part-3-2
  125,  130,  135,  140,  145,  150,  155,  160,  165,  170,  175,  180,  185,  190,  195,  200
  201,  206,  211,  216,  225,  230,  235,  240,  481,  482,  483,  484,  485,  486,  487,  488
  489,  490,  491,  492,  493,  494,  495,  496,  561,  562,  563,  564,  581,  582,  583,  584
  721,  722,  723,  724,  725,  726,  727,  728,  729,  730,  731,  732,  733,  734,  735,  736
  801,  802,  803,  804,  821,  822,  823,  824, 1321, 1326, 1331, 1336, 1345, 1350, 1355, 1360
 1365, 1370, 1375, 1380, 1385, 1390, 1395, 1400, 1405, 1410, 1415, 1420, 1421, 1422, 1423, 1424
*Nset, nset=Set-25, instance=Part-3-2
    8,    9,   10,   14,   15,  111,  112,  113,  114,  115,  116,  117,  118,  119,  120,  121
  122,  123,  124,  125,  177,  178,  179,  180,  181,  182,  183,  184,  185,  186,  187,  220
  221,  222,  223,  224,  225,  226,  227,  228,  229,  230,  231,  232,  233,  234,  235,  236
  237,  556,  557,  558,  559,  560,  561,  562,  563,  564,  565,  566,  567,  568,  569,  570
  571,  818,  819,  820,  821,  822,  823,  824,  825,  826,  827,  828,  829,  830,  831,  832
  833, 1127, 1128, 1129, 1130, 1131, 1132, 1133, 1134, 1135, 1136, 1137, 1138, 1139, 1140, 1141
 1142, 1206, 1207, 1208, 1209, 1210, 1211, 1212, 1213, 1214, 1215, 1216, 1217, 1218, 1219, 1220
 1221,
*Elset, elset=Set-25, instance=Part-3-2
  365,  370,  375,  380,  385,  390,  395,  400,  405,  410,  415,  420,  425,  430,  435,  440
  441,  446,  451,  456,  465,  470,  475,  480,  961,  962,  963,  964,  965,  966,  967,  968
  969,  970,  971,  972,  973,  974,  975,  976, 1041, 1042, 1043, 1044, 1061, 1062, 1063, 1064
 1565, 1570, 1575, 1580, 1581, 1582, 1583, 1584, 1601, 1602, 1603, 1604, 1621, 1622, 1623, 1624
 1641, 1642, 1643, 1644, 1661, 1666, 1671, 1676, 1801, 1806, 1811, 1816, 1825, 1830, 1835, 1840
 1845, 1850, 1855, 1860, 1865, 1870, 1875, 1880, 1885, 1890, 1895, 1900, 1905, 1910, 1915, 1920
*Nset, nset=Set-26
 1,
*Nset, nset=Set-27, instance=Part-3-2
 13,
*Nset, nset=Set-28, instance=Part-3-2
 13,
*Nset, nset=Set-32, instance=Part-2-2
  17,  18,  19,  20,  21,  22,  23,  24, 181, 182, 183, 184, 185, 186, 187, 188
 189, 190, 191, 192, 193, 194, 231, 232, 233, 234, 235, 236, 237, 238, 239, 240
 241, 242, 243, 244, 263, 264, 265, 266, 267, 268, 269, 270, 271, 272, 273, 274
 275, 276, 302, 303, 304, 305, 306, 307, 308, 316, 317, 318, 319, 320, 321, 322
*Nset, nset=Set-32, instance=Part-3-2
    4,    5,    6,   11,   12,   58,   59,   60,   61,   62,   63,   64,   65,   66,   67,   68
   69,   70,   71,   72,  126,  127,  128,  129,  130,  131,  132,  133,  134,  135,  136,  146
  147,  148,  149,  150,  151,  152,  153,  154,  155,  156,  204,  205,  206,  207,  208,  209
  210,  389,  390,  391,  392,  393,  394,  395,  396,  397,  398,  399,  400,  401,  402,  403
  404,  572,  573,  574,  575,  576,  577,  578,  579,  580,  581,  582,  583,  584,  585,  586
  587,  687,  688,  689,  690,  691,  692,  693,  694,  695,  696,  697,  698,  699,  700,  701
  702, 1012, 1013, 1014, 1015, 1016, 1017, 1018, 1019, 1020, 1021, 1022, 1023, 1024, 1025, 1026
 1027,
*Elset, elset=Set-32, instance=Part-2-2
 313, 314, 315, 316, 317, 318, 319, 320, 393, 394, 395, 396, 397, 398, 399, 400
 473, 474, 475, 476, 477, 478, 479, 480, 553, 554, 555, 556, 557, 558, 559, 560
*Elset, elset=Set-32, instance=Part-3-2
  125,  130,  135,  140,  145,  150,  155,  160,  165,  170,  175,  180,  185,  190,  195,  200
  201,  206,  211,  216,  225,  230,  235,  240,  481,  482,  483,  484,  485,  486,  487,  488
  489,  490,  491,  492,  493,  494,  495,  496,  561,  562,  563,  564,  581,  582,  583,  584
  721,  722,  723,  724,  725,  726,  727,  728,  729,  730,  731,  732,  733,  734,  735,  736
  801,  802,  803,  804,  821,  822,  823,  824, 1321, 1326, 1331, 1336, 1345, 1350, 1355, 1360
 1365, 1370, 1375, 1380, 1385, 1390, 1395, 1400, 1405, 1410, 1415, 1420, 1421, 1422, 1423, 1424
*Nset, nset=Set-33, instance=Part-2-2
   5,   6,   7,   8,  11,  12,  15,  16,  39,  40,  41,  42,  43,  44,  45,  46
  47,  48,  49,  50,  51,  52, 103, 104, 105, 106, 107, 108, 109, 110, 111, 112
 113, 114, 115, 116, 149, 150, 151, 152, 153, 154, 155, 156, 157, 158, 159, 160
 161, 162, 323, 324, 325, 326, 327, 328, 329, 330, 331, 332, 333, 334, 335, 336
*Nset, nset=Set-33, instance=Part-3-2
    8,    9,   10,   14,   15,  111,  112,  113,  114,  115,  116,  117,  118,  119,  120,  121
  122,  123,  124,  125,  177,  178,  179,  180,  181,  182,  183,  184,  185,  186,  187,  220
  221,  222,  223,  224,  225,  226,  227,  228,  229,  230,  231,  232,  233,  234,  235,  236
  237,  556,  557,  558,  559,  560,  561,  562,  563,  564,  565,  566,  567,  568,  569,  570
  571,  818,  819,  820,  821,  822,  823,  824,  825,  826,  827,  828,  829,  830,  831,  832
  833, 1127, 1128, 1129, 1130, 1131, 1132, 1133, 1134, 1135, 1136, 1137, 1138, 1139, 1140, 1141
 1142, 1206, 1207, 1208, 1209, 1210, 1211, 1212, 1213, 1214, 1215, 1216, 1217, 1218, 1219, 1220
 1221,
*Elset, elset=Set-33, instance=Part-2-2
  73,  74,  75,  76,  77,  78,  79,  80, 153, 154, 155, 156, 157, 158, 159, 160
 233, 234, 235, 236, 237, 238, 239, 240, 633, 634, 635, 636, 637, 638, 639, 640
*Elset, elset=Set-33, instance=Part-3-2
  365,  370,  375,  380,  385,  390,  395,  400,  405,  410,  415,  420,  425,  430,  435,  440
  441,  446,  451,  456,  465,  470,  475,  480,  961,  962,  963,  964,  965,  966,  967,  968
  969,  970,  971,  972,  973,  974,  975,  976, 1041, 1042, 1043, 1044, 1061, 1062, 1063, 1064
 1565, 1570, 1575, 1580, 1581, 1582, 1583, 1584, 1601, 1602, 1603, 1604, 1621, 1622, 1623, 1624
 1641, 1642, 1643, 1644, 1661, 1666, 1671, 1676, 1801, 1806, 1811, 1816, 1825, 1830, 1835, 1840
 1845, 1850, 1855, 1860, 1865, 1870, 1875, 1880, 1885, 1890, 1895, 1900, 1905, 1910, 1915, 1920
*Nset, nset=Set-36
 1,
*Nset, nset=Set-Outer, instance=Part-3-2
    1,    3,    5,    6,    7,    9,   10,   11,   12,   13,   14,   15,   20,   21,   22,   23
   24,   25,   26,   27,   28,   29,   30,   31,   32,   33,   34,   35,   49,   50,   51,   52
   53,   54,   55,   56,   57,   66,   67,   68,   69,   70,   71,   72,   86,   87,   88,   89
   90,   91,   92,   93,   94,   95,   96,   97,   98,   99,  100,  101,  102,  103,  104,  105
  106,  107,  108,  109,  110,  119,  120,  121,  122,  123,  124,  125,  130,  131,  132,  133
  134,  135,  136,  137,  138,  139,  140,  141,  142,  143,  144,  145,  150,  151,  152,  153
  154,  155,  156,  157,  158,  159,  160,  161,  162,  163,  164,  165,  166,  167,  168,  169
  170,  171,  172,  181,  182,  183,  184,  185,  186,  187,  188,  189,  190,  191,  192,  193
  194,  195,  196,  197,  198,  199,  200,  201,  202,  203,  204,  205,  206,  207,  208,  209
  210,  211,  212,  213,  214,  215,  216,  217,  218,  219,  224,  225,  226,  227,  228,  229
  230,  231,  232,  233,  234,  235,  236,  237,  254,  255,  256,  257,  258,  259,  260,  261
  262,  263,  264,  265,  266,  267,  268,  269,  270,  271,  272,  273,  274,  275,  276,  277
  278,  279,  280,  281,  282,  283,  284,  285,  286,  287,  288,  289,  290,  291,  292,  293
  294,  295,  296,  297,  298,  299,  300,  301,  302,  303,  304,  305,  306,  307,  308,  309
  310,  311,  312,  313,  314,  315,  316,  493,  494,  495,  496,  497,  498,  499,  500,  501
  502,  503,  504,  505,  506,  507,  508,  509,  510,  511,  512,  513,  514,  515,  516,  517
  518,  519,  520,  521,  522,  523,  524,  525,  526,  527,  528,  529,  530,  531,  532,  533
  534,  535,  536,  537,  538,  539,  540,  541,  542,  543,  544,  545,  546,  547,  548,  549
  550,  551,  552,  553,  554,  555,  624,  625,  626,  627,  628,  629,  630,  631,  632,  633
  634,  635,  636,  637,  638,  639,  640,  641,  642,  643,  644,  645,  646,  647,  648,  649
** ... 22 like lines cut
*Elset, elset=Set-Outer, instance=Part-3-2
    1,    2,    3,    4,    5,    6,    7,    8,    9,   10,   11,   12,   13,   14,   15,   16
   17,   18,   19,   20,  101,  102,  103,  104,  105,  106,  107,  108,  109,  110,  111,  112
  113,  114,  115,  116,  117,  118,  119,  120,  201,  202,  203,  204,  205,  206,  207,  208
  209,  210,  211,  212,  213,  214,  215,  216,  217,  218,  219,  220,  221,  222,  223,  224
  225,  226,  227,  228,  229,  230,  231,  232,  233,  234,  235,  236,  237,  238,  239,  240
  321,  322,  323,  324,  325,  326,  327,  328,  329,  330,  331,  332,  333,  334,  335,  336
  337,  338,  339,  340,  341,  342,  343,  344,  345,  346,  347,  348,  349,  350,  351,  352
  353,  354,  355,  356,  357,  358,  359,  360,  441,  442,  443,  444,  445,  446,  447,  448
  449,  450,  451,  452,  453,  454,  455,  456,  457,  458,  459,  460,  461,  462,  463,  464
  465,  466,  467,  468,  469,  470,  471,  472,  473,  474,  475,  476,  477,  478,  479,  480
  561,  562,  563,  564,  565,  566,  567,  568,  569,  570,  571,  572,  573,  574,  575,  576
  577,  578,  579,  580,  581,  582,  583,  584,  585,  586,  587,  588,  589,  590,  591,  592
  593,  594,  595,  596,  597,  598,  599,  600,  681,  682,  683,  684,  685,  686,  687,  688
  689,  690,  691,  692,  693,  694,  695,  696,  697,  698,  699,  700,  701,  702,  703,  704
  705,  706,  707,  708,  709,  710,  711,  712,  713,  714,  715,  716,  717,  718,  719,  720
  801,  802,  803,  804,  805,  806,  807,  808,  809,  810,  811,  812,  813,  814,  815,  816
  817,  818,  819,  820,  821,  822,  823,  824,  825,  826,  827,  828,  829,  830,  831,  832
  833,  834,  835,  836,  837,  838,  839,  840,  841,  842,  843,  844,  845,  846,  847,  848
  849,  850,  851,  852,  853,  854,  855,  856,  857,  858,  859,  860,  941,  942,  943,  944
  945,  946,  947,  948,  949,  950,  951,  952,  953,  954,  955,  956,  957,  958,  959,  960
** ... 20 like lines cut
*Nset, nset=t_Set-23, instance=Part-3-2
    8,    9,   10,   14,   15,  111,  112,  113,  114,  115,  116,  117,  118,  119,  120,  121
  122,  123,  124,  125,  177,  178,  179,  180,  181,  182,  183,  184,  185,  186,  187,  220
  221,  222,  223,  224,  225,  226,  227,  228,  229,  230,  231,  232,  233,  234,  235,  236
  237,  556,  557,  558,  559,  560,  561,  562,  563,  564,  565,  566,  567,  568,  569,  570
  571,  818,  819,  820,  821,  822,  823,  824,  825,  826,  827,  828,  829,  830,  831,  832
  833, 1127, 1128, 1129, 1130, 1131, 1132, 1133, 1134, 1135, 1136, 1137, 1138, 1139, 1140, 1141
 1142, 1206, 1207, 1208, 1209, 1210, 1211, 1212, 1213, 1214, 1215, 1216, 1217, 1218, 1219, 1220
 1221,
*Elset, elset=t_Set-23, instance=Part-3-2
  365,  370,  375,  380,  385,  390,  395,  400,  405,  410,  415,  420,  425,  430,  435,  440
  441,  446,  451,  456,  465,  470,  475,  480,  961,  962,  963,  964,  965,  966,  967,  968
  969,  970,  971,  972,  973,  974,  975,  976, 1041, 1042, 1043, 1044, 1061, 1062, 1063, 1064
 1565, 1570, 1575, 1580, 1581, 1582, 1583, 1584, 1601, 1602, 1603, 1604, 1621, 1622, 1623, 1624
 1641, 1642, 1643, 1644, 1661, 1666, 1671, 1676, 1801, 1806, 1811, 1816, 1825, 1830, 1835, 1840
 1845, 1850, 1855, 1860, 1865, 1870, 1875, 1880, 1885, 1890, 1895, 1900, 1905, 1910, 1915, 1920
*Nset, nset=t_Set-31, instance=Part-2-2
   5,   6,   7,   8,  11,  12,  15,  16,  39,  40,  41,  42,  43,  44,  45,  46
  47,  48,  49,  50,  51,  52, 103, 104, 105, 106, 107, 108, 109, 110, 111, 112
 113, 114, 115, 116, 149, 150, 151, 152, 153, 154, 155, 156, 157, 158, 159, 160
 161, 162, 323, 324, 325, 326, 327, 328, 329, 330, 331, 332, 333, 334, 335, 336
*Nset, nset=t_Set-31, instance=Part-3-2
    1,    8,    9,   10,   14,   15,  111,  112,  113,  114,  115,  116,  117,  118,  119,  120
  121,  122,  123,  124,  125,  177,  178,  179,  180,  181,  182,  183,  184,  185,  186,  187
  220,  221,  222,  223,  224,  225,  226,  227,  228,  229,  230,  231,  232,  233,  234,  235
  236,  237,  556,  557,  558,  559,  560,  561,  562,  563,  564,  565,  566,  567,  568,  569
  570,  571,  818,  819,  820,  821,  822,  823,  824,  825,  826,  827,  828,  829,  830,  831
  832,  833, 1127, 1128, 1129, 1130, 1131, 1132, 1133, 1134, 1135, 1136, 1137, 1138, 1139, 1140
 1141, 1142, 1206, 1207, 1208, 1209, 1210, 1211, 1212, 1213, 1214, 1215, 1216, 1217, 1218, 1219
 1220, 1221
*Elset, elset=t_Set-31, instance=Part-2-2
  73,  74,  75,  76,  77,  78,  79,  80, 153, 154, 155, 156, 157, 158, 159, 160
 233, 234, 235, 236, 237, 238, 239, 240, 633, 634, 635, 636, 637, 638, 639, 640
*Elset, elset=t_Set-31, instance=Part-3-2
  365,  370,  375,  380,  385,  390,  395,  400,  405,  410,  415,  420,  425,  430,  435,  440
  441,  446,  451,  456,  465,  470,  475,  480,  961,  962,  963,  964,  965,  966,  967,  968
  969,  970,  971,  972,  973,  974,  975,  976, 1041, 1042, 1043, 1044, 1061, 1062, 1063, 1064
 1565, 1570, 1575, 1580, 1581, 1582, 1583, 1584, 1601, 1602, 1603, 1604, 1621, 1622, 1623, 1624
 1641, 1642, 1643, 1644, 1661, 1666, 1671, 1676, 1801, 1806, 1811, 1816, 1825, 1830, 1835, 1840
 1845, 1850, 1855, 1860, 1865, 1870, 1875, 1880, 1885, 1890, 1895, 1900, 1905, 1910, 1915, 1920
*Nset, nset=t_Set-34, instance=Part-2-2
   5,   6,   7,   8,  11,  12,  15,  16,  39,  40,  41,  42,  43,  44,  45,  46
  47,  48,  49,  50,  51,  52, 103, 104, 105, 106, 107, 108, 109, 110, 111, 112
 113, 114, 115, 116, 149, 150, 151, 152, 153, 154, 155, 156, 157, 158, 159, 160
 161, 162, 323, 324, 325, 326, 327, 328, 329, 330, 331, 332, 333, 334, 335, 336
*Nset, nset=t_Set-34, instance=Part-3-2
    8,    9,   10,   14,   15,  111,  112,  113,  114,  115,  116,  117,  118,  119,  120,  121
  122,  123,  124,  125,  177,  178,  179,  180,  181,  182,  183,  184,  185,  186,  187,  220
  221,  222,  223,  224,  225,  226,  227,  228,  229,  230,  231,  232,  233,  234,  235,  236
  237,  556,  557,  558,  559,  560,  561,  562,  563,  564,  565,  566,  567,  568,  569,  570
  571,  818,  819,  820,  821,  822,  823,  824,  825,  826,  827,  828,  829,  830,  831,  832
  833, 1127, 1128, 1129, 1130, 1131, 1132, 1133, 1134, 1135, 1136, 1137, 1138, 1139, 1140, 1141
 1142, 1206, 1207, 1208, 1209, 1210, 1211, 1212, 1213, 1214, 1215, 1216, 1217, 1218, 1219, 1220
 1221,
*Elset, elset=t_Set-34, instance=Part-2-2
  73,  74,  75,  76,  77,  78,  79,  80, 153, 154, 155, 156, 157, 158, 159, 160
 233, 234, 235, 236, 237, 238, 239, 240, 633, 634, 635, 636, 637, 638, 639, 640
*Elset, elset=t_Set-34, instance=Part-3-2
  365,  370,  375,  380,  385,  390,  395,  400,  405,  410,  415,  420,  425,  430,  435,  440
  441,  446,  451,  456,  465,  470,  475,  480,  961,  962,  963,  964,  965,  966,  967,  968
  969,  970,  971,  972,  973,  974,  975,  976, 1041, 1042, 1043, 1044, 1061, 1062, 1063, 1064
 1565, 1570, 1575, 1580, 1581, 1582, 1583, 1584, 1601, 1602, 1603, 1604, 1621, 1622, 1623, 1624
 1641, 1642, 1643, 1644, 1661, 1666, 1671, 1676, 1801, 1806, 1811, 1816, 1825, 1830, 1835, 1840
 1845, 1850, 1855, 1860, 1865, 1870, 1875, 1880, 1885, 1890, 1895, 1900, 1905, 1910, 1915, 1920
*Nset, nset=t_Set-35, instance=Part-2-2
   5,   6,   7,   8,  11,  12,  15,  16,  39,  40,  41,  42,  43,  44,  45,  46
  47,  48,  49,  50,  51,  52, 103, 104, 105, 106, 107, 108, 109, 110, 111, 112
 113, 114, 115, 116, 149, 150, 151, 152, 153, 154, 155, 156, 157, 158, 159, 160
 161, 162, 323, 324, 325, 326, 327, 328, 329, 330, 331, 332, 333, 334, 335, 336
*Nset, nset=t_Set-35, instance=Part-3-2
    8,    9,   10,   14,   15,  111,  112,  113,  114,  115,  116,  117,  118,  119,  120,  121
  122,  123,  124,  125,  177,  178,  179,  180,  181,  182,  183,  184,  185,  186,  187,  220
  221,  222,  223,  224,  225,  226,  227,  228,  229,  230,  231,  232,  233,  234,  235,  236
  237,  556,  557,  558,  559,  560,  561,  562,  563,  564,  565,  566,  567,  568,  569,  570
  571,  818,  819,  820,  821,  822,  823,  824,  825,  826,  827,  828,  829,  830,  831,  832
  833, 1127, 1128, 1129, 1130, 1131, 1132, 1133, 1134, 1135, 1136, 1137, 1138, 1139, 1140, 1141
 1142, 1206, 1207, 1208, 1209, 1210, 1211, 1212, 1213, 1214, 1215, 1216, 1217, 1218, 1219, 1220
 1221,
*Elset, elset=t_Set-35, instance=Part-2-2
  73,  74,  75,  76,  77,  78,  79,  80, 153, 154, 155, 156, 157, 158, 159, 160
 233, 234, 235, 236, 237, 238, 239, 240, 633, 634, 635, 636, 637, 638, 639, 640
*Elset, elset=t_Set-35, instance=Part-3-2
  365,  370,  375,  380,  385,  390,  395,  400,  405,  410,  415,  420,  425,  430,  435,  440
  441,  446,  451,  456,  465,  470,  475,  480,  961,  962,  963,  964,  965,  966,  967,  968
  969,  970,  971,  972,  973,  974,  975,  976, 1041, 1042, 1043, 1044, 1061, 1062, 1063, 1064
 1565, 1570, 1575, 1580, 1581, 1582, 1583, 1584, 1601, 1602, 1603, 1604, 1621, 1622, 1623, 1624
 1641, 1642, 1643, 1644, 1661, 1666, 1671, 1676, 1801, 1806, 1811, 1816, 1825, 1830, 1835, 1840
 1845, 1850, 1855, 1860, 1865, 1870, 1875, 1880, 1885, 1890, 1895, 1900, 1905, 1910, 1915, 1920
*Nset, nset=t_Set-37, instance=Part-3-2
    8,    9,   10,   14,   15,  111,  112,  113,  114,  115,  116,  117,  118,  119,  120,  121
  122,  123,  124,  125,  177,  178,  179,  180,  181,  182,  183,  184,  185,  186,  187,  220
  221,  222,  223,  224,  225,  226,  227,  228,  229,  230,  231,  232,  233,  234,  235,  236
  237,  556,  557,  558,  559,  560,  561,  562,  563,  564,  565,  566,  567,  568,  569,  570
  571,  818,  819,  820,  821,  822,  823,  824,  825,  826,  827,  828,  829,  830,  831,  832
  833, 1127, 1128, 1129, 1130, 1131, 1132, 1133, 1134, 1135, 1136, 1137, 1138, 1139, 1140, 1141
 1142, 1206, 1207, 1208, 1209, 1210, 1211, 1212, 1213, 1214, 1215, 1216, 1217, 1218, 1219, 1220
 1221,
*Elset, elset=t_Set-37, instance=Part-3-2
  365,  370,  375,  380,  385,  390,  395,  400,  405,  410,  415,  420,  425,  430,  435,  440
  441,  446,  451,  456,  465,  470,  475,  480,  961,  962,  963,  964,  965,  966,  967,  968
  969,  970,  971,  972,  973,  974,  975,  976, 1041, 1042, 1043, 1044, 1061, 1062, 1063, 1064
 1565, 1570, 1575, 1580, 1581, 1582, 1583, 1584, 1601, 1602, 1603, 1604, 1621, 1622, 1623, 1624
 1641, 1642, 1643, 1644, 1661, 1666, 1671, 1676, 1801, 1806, 1811, 1816, 1825, 1830, 1835, 1840
 1845, 1850, 1855, 1860, 1865, 1870, 1875, 1880, 1885, 1890, 1895, 1900, 1905, 1910, 1915, 1920
*Nset, nset=_PickedSet61, internal
 1,
*Elset, elset=_Surf-Inner_S1, internal, instance=Part-2-2, generate
   1,  640,    1
*Surface, type=ELEMENT, name=Surf-Inner
_Surf-Inner_S1, S1
*Elset, elset=_Surf-Outer_S2, internal, instance=Part-3-2
    1,    2,    3,    4,    5,    6,    7,    8,    9,   10,   11,   12,   13,   14,   15,   16
   17,   18,   19,   20,  101,  102,  103,  104,  105,  106,  107,  108,  109,  110,  111,  112
  113,  114,  115,  116,  117,  118,  119,  120,  201,  202,  203,  204,  205,  206,  207,  208
  209,  210,  211,  212,  213,  214,  215,  216,  217,  218,  219,  220,  221,  222,  223,  224
  225,  226,  227,  228,  229,  230,  231,  232,  233,  234,  235,  236,  237,  238,  239,  240
  321,  322,  323,  324,  325,  326,  327,  328,  329,  330,  331,  332,  333,  334,  335,  336
  337,  338,  339,  340,  341,  342,  343,  344,  345,  346,  347,  348,  349,  350,  351,  352
  353,  354,  355,  356,  357,  358,  359,  360,  441,  442,  443,  444,  445,  446,  447,  448
  449,  450,  451,  452,  453,  454,  455,  456,  457,  458,  459,  460,  461,  462,  463,  464
  465,  466,  467,  468,  469,  470,  471,  472,  473,  474,  475,  476,  477,  478,  479,  480
  561,  562,  563,  564,  565,  566,  567,  568,  569,  570,  571,  572,  573,  574,  575,  576
  577,  578,  579,  580,  581,  582,  583,  584,  585,  586,  587,  588,  589,  590,  591,  592
  593,  594,  595,  596,  597,  598,  599,  600,  681,  682,  683,  684,  685,  686,  687,  688
  689,  690,  691,  692,  693,  694,  695,  696,  697,  698,  699,  700,  701,  702,  703,  704
  705,  706,  707,  708,  709,  710,  711,  712,  713,  714,  715,  716,  717,  718,  719,  720
  801,  802,  803,  804,  805,  806,  807,  808,  809,  810,  811,  812,  813,  814,  815,  816
  817,  818,  819,  820,  821,  822,  823,  824,  825,  826,  827,  828,  829,  830,  831,  832
  833,  834,  835,  836,  837,  838,  839,  840,  841,  842,  843,  844,  845,  846,  847,  848
  849,  850,  851,  852,  853,  854,  855,  856,  857,  858,  859,  860,  941,  942,  943,  944
  945,  946,  947,  948,  949,  950,  951,  952,  953,  954,  955,  956,  957,  958,  959,  960
** ... 20 like lines cut
*Surface, type=ELEMENT, name=Surf-Outer
_Surf-Outer_S2, S2
** Constraint: Constraint-3
*Rigid Body, ref node=_PickedSet61, tie nset=t_Set-37
*End Assembly
*Distribution Table, name=Ori-1-DiscOrient_Table
coord3D, coord3D
** 
** ELEMENT CONTROLS
** 
*Section Controls, name=EC-1, ELEMENT DELETION=YES
1., 1., 1.
*Amplitude, name=Amp-1
           0.01,            0.01,            0.02,            0.02,            0.03,            0.03,            0.04,            0.04
           0.05,            0.05,            0.06,            0.06,            0.07,            0.07,            0.08,            0.08
           0.09,            0.09,             0.1,             0.1,            0.11,            0.11,            0.12,            0.12
           0.13,            0.13,            0.14,            0.14,            0.15,            0.15,            0.16,            0.16
           0.17,            0.17,            0.18,            0.18,            0.19,            0.19,             0.2,             0.2
           0.21,            0.21,            0.22,            0.22,            0.23,            0.23,            0.24,            0.24
           0.25,            0.25,            0.26,            0.26,            0.27,            0.27,            0.28,            0.28
           0.29,            0.29,             0.3,             0.3,            0.31,            0.31,            0.32,            0.32
           0.33,            0.33,            0.34,            0.34,            0.35,            0.35,            0.36,            0.36
           0.37,            0.37,            0.38,            0.38,            0.39,            0.39,             0.4,             0.4
           0.41,            0.41,            0.42,            0.42,            0.43,            0.43,            0.44,            0.44
           0.45,            0.45,            0.46,            0.46,            0.47,            0.47,            0.48,            0.48
           0.49,            0.49,             0.5,             0.5,            0.51,            0.51,            0.52,            0.52
           0.53,            0.53,            0.54,            0.54,            0.55,            0.55,            0.56,            0.56
           0.57,            0.57,            0.58,            0.58,            0.59,            0.59,             0.6,             0.6
           0.61,            0.61,            0.62,            0.62,            0.63,            0.63,            0.64,            0.64
           0.65,            0.65,            0.66,            0.66,            0.67,            0.67,            0.68,            0.68
           0.69,            0.69,             0.7,             0.7,            0.71,            0.71,            0.72,            0.72
           0.73,            0.73,            0.74,            0.74,            0.75,            0.75,            0.76,            0.76
           0.77,            0.77,            0.78,            0.78,            0.79,            0.79,             0.8,             0.8
** ... 5 like lines cut
** 
** MATERIALS
** 
*Material, name=Material-1
*Density
 2.5e-09,
*Elastic
 41907.3, 0.2
*Concrete Damaged Plasticity
35.,   0.1,  1.16,  0.67, 1e-05
*Concrete Compression Hardening
 102.102,          0.
 110.617,  0.00011043
 117.466,    0.000197
 117.822, 0.000205391
    120., 0.000336538
 96.8558,  0.00118881
 75.3216,  0.00195266
 58.8072,  0.00259673
 46.7899,  0.00313349
 38.0287,  0.00359255
 31.5268,   0.0039977
 26.5963,  0.00436535
  23.007,  0.00468413
 20.1298,   0.0049859
  15.358,  0.00563353
*Concrete Tension Stiffening
 2.842,0.
*Concrete Compression Damage
       0.,          0.
       0.,  0.00011043
       0.,    0.000197
       0., 0.000205391
       0., 0.000336538
 0.192868,  0.00118881
  0.37232,  0.00195266
  0.50994,  0.00259673
 0.610084,  0.00313349
 0.683094,  0.00359255
 0.737277,   0.0039977
 0.778364,  0.00436535
 0.808275,  0.00468413
 0.832251,   0.0049859
*Concrete Failure, TYPE=Strain
0,0.00563,0,0.87201
*Material, name=Material-2
*Damage Initiation, criterion=HASHIN
1200., 972.,  37., 147., 71.5,  32.
*Damage Evolution, type=ENERGY
48.,60., 4., 8.
*Damage Stabilization
0.0001,0.0001,0.0001,0.0001
*Density
 1.7e-09,
*Elastic, type=ENGINEERING CONSTANTS
105500.,10000.,10000.,  0.32,  0.32,  0.44, 3300., 3300.
 3600.,
** 
** INTERACTION PROPERTIES
** 
*Surface Interaction, name=IntProp-1
*Friction
0.,
*Surface Behavior, pressure-overclosure=HARD
** 
** BOUNDARY CONDITIONS
** 
** Name: BC-1 Type: Displacement/Rotation
*Boundary
Set-32, 1, 1
Set-32, 2, 2
Set-32, 3, 3
** Name: BC-2 Type: Displacement/Rotation
*Boundary
Set-33, 1, 1
Set-33, 2, 2
** 
** INTERACTIONS
** 
** Interaction: Int-1
*Contact, op=NEW
*Contact Inclusions, ALL EXTERIOR
*Contact Property Assignment
 ,  , IntProp-1
** ----------------------------------------------------------------
** 
** STEP: Step-1
** 
*Step, name=Step-1, nlgeom=YES
*Dynamic, Explicit
, 1.
*Bulk Viscosity
0.06, 1.2
** 
** BOUNDARY CONDITIONS
** 
** Name: BC-3 Type: Displacement/Rotation
*Boundary, amplitude=Amp-1
Set-36, 3, 3, 10.
** 
** OUTPUT REQUESTS
** 
*Restart, write, number interval=1, time marks=NO
** 
** FIELD OUTPUT: F-Output-1
** 
*Output, field, time interval=0.01
*Node Output
RF, U, V
*Element Output, directions=YES
DAMAGEC, DAMAGEFC, DAMAGEFT, DAMAGEMC, DAMAGEMT, DAMAGESHR, DAMAGET, LE, PE, PEEQ, S, STATUS
*Contact Output
CSTRESS, 
** 
** HISTORY OUTPUT: H-Output-1
** 
*Output, history, variable=PRESELECT
*End Step
